Version 4
SHEET 1 880 680
WIRE 336 224 304 224
WIRE 400 336 400 304
WIRE 352 400 304 400
WIRE 304 448 304 400
WIRE 400 448 400 416
FLAG -528 192 V+
FLAG -528 272 0
FLAG 368 144 V+
FLAG 368 304 0
FLAG -448 192 Vset
FLAG 304 224 Vset
FLAG -448 272 0
FLAG 352 352 0
FLAG 304 528 0
FLAG 400 448 0
FLAG -320 272 0
FLAG -320 512 0
FLAG -320 192 signal+
FLAG -320 432 signal-
SYMBOL Opamps\\LTC6362 400 224 R0
SYMATTR InstName U1
SYMBOL voltage -528 176 R0
SYMATTR InstName V1
SYMBOL voltage -448 176 R0
SYMATTR InstName V2
SYMBOL sw 400 320 R0
SYMATTR InstName S1
SYMBOL voltage 304 432 R0
WINDOW 123 0 0 Left 0
WINDOW 39 0 0 Left 0
SYMATTR InstName V3
SYMATTR Value PULSE(0 1 50m)
SYMBOL voltage -320 288 R180
WINDOW 0 24 96 Left 2
WINDOW 3 24 16 Left 2
SYMATTR InstName V4
SYMBOL voltage -320 528 R180
WINDOW 0 24 96 Left 2
WINDOW 3 24 16 Left 2
SYMATTR InstName V5
